@<TRIPOS>MOLECULE
MOF-5.cif
 424 472 0 0 0
SMALL
GASTEIGER

@<TRIPOS>ATOM
      1 ZN          7.5882    7.5882    5.3447 Zn      1  LIG1        0.0000
      2 ZN         18.2777   18.2777   20.5211 Zn      1  LIG1        0.0000
      3 ZN         18.2777   18.2777    5.3447 Zn      1  LIG1        0.0000
      4 ZN          7.5882    7.5882   20.5211 Zn      1  LIG1        0.0000
      5 ZN         18.2777    7.5882   20.5211 Zn      1  LIG1        0.0000
      6 ZN          7.5882   18.2777    5.3447 Zn      1  LIG1        0.0000
      7 ZN          7.5882   18.2777   20.5211 Zn      1  LIG1        0.0000
      8 ZN         18.2777    7.5882    5.3447 Zn      1  LIG1        0.0000
      9 ZN          5.3447    7.5882    7.5882 Zn      1  LIG1        0.0000
     10 ZN         20.5211   18.2777   18.2777 Zn      1  LIG1        0.0000
     11 ZN          5.3447   18.2777   18.2777 Zn      1  LIG1        0.0000
     12 ZN         20.5211    7.5882    7.5882 Zn      1  LIG1        0.0000
     13 ZN         20.5211   18.2777    7.5882 Zn      1  LIG1        0.0000
     14 ZN          5.3447    7.5882   18.2777 Zn      1  LIG1        0.0000
     15 ZN         20.5211    7.5882   18.2777 Zn      1  LIG1        0.0000
     16 ZN          5.3447   18.2777    7.5882 Zn      1  LIG1        0.0000
     17 ZN          7.5882    5.3447    7.5882 Zn      1  LIG1        0.0000
     18 ZN         18.2777   20.5211   18.2777 Zn      1  LIG1        0.0000
     19 ZN         18.2777    5.3447   18.2777 Zn      1  LIG1        0.0000
     20 ZN          7.5882   20.5211    7.5882 Zn      1  LIG1        0.0000
     21 ZN          7.5882   20.5211   18.2777 Zn      1  LIG1        0.0000
     22 ZN         18.2777    5.3447    7.5882 Zn      1  LIG1        0.0000
     23 ZN         18.2777   20.5211    7.5882 Zn      1  LIG1        0.0000
     24 ZN          7.5882    5.3447   18.2777 Zn      1  LIG1        0.0000
     25 ZN          5.3447   20.5211   20.5211 Zn      1  LIG1        0.0000
     26 ZN         20.5211    5.3447    5.3447 Zn      1  LIG1        0.0000
     27 ZN          5.3447    5.3447    5.3447 Zn      1  LIG1        0.0000
     28 ZN         20.5211   20.5211   20.5211 Zn      1  LIG1        0.0000
     29 ZN         20.5211    5.3447   20.5211 Zn      1  LIG1        0.0000
     30 ZN          5.3447   20.5211    5.3447 Zn      1  LIG1        0.0000
     31 ZN         20.5211   20.5211    5.3447 Zn      1  LIG1        0.0000
     32 ZN          5.3447    5.3447   20.5211 Zn      1  LIG1        0.0000
     33 O           6.4665    6.4665    6.4665 O.3     1  LIG1        0.0000
     34 O          19.3994   19.3994   19.3994 O.3     1  LIG1        0.0000
     35 O          19.3994   19.3994    6.4665 O.3     1  LIG1        0.0000
     36 O           6.4665    6.4665   19.3994 O.3     1  LIG1        0.0000
     37 O          19.3994    6.4665   19.3994 O.3     1  LIG1        0.0000
     38 O           6.4665   19.3994    6.4665 O.3     1  LIG1        0.0000
     39 O           6.4665   19.3994   19.3994 O.3     1  LIG1        0.0000
     40 O          19.3994    6.4665    6.4665 O.3     1  LIG1        0.0000
     41 O           7.2694    9.4759    5.6635 O.3     1  LIG1        0.0000
     42 O          18.5965   16.3899   20.2023 O.3     1  LIG1        0.0000
     43 O          18.5965   16.3899    5.6635 O.3     1  LIG1        0.0000
     44 O           7.2694    9.4759   20.2023 O.3     1  LIG1        0.0000
     45 O          18.5965    9.4759   20.2023 O.3     1  LIG1        0.0000
     46 O           7.2694   16.3899    5.6635 O.3     1  LIG1        0.0000
     47 O           7.2694   16.3899   20.2023 O.3     1  LIG1        0.0000
     48 O          18.5965    9.4759    5.6635 O.3     1  LIG1        0.0000
     49 O           5.6635    7.2694    9.4759 O.3     1  LIG1        0.0000
     50 O          20.2023   18.5965   16.3899 O.3     1  LIG1        0.0000
     51 O           5.6635   18.5965   16.3899 O.3     1  LIG1        0.0000
     52 O          20.2023    7.2694    9.4759 O.3     1  LIG1        0.0000
     53 O          20.2023   18.5965    9.4759 O.3     1  LIG1        0.0000
     54 O           5.6635    7.2694   16.3899 O.3     1  LIG1        0.0000
     55 O          20.2023    7.2694   16.3899 O.3     1  LIG1        0.0000
     56 O           5.6635   18.5965    9.4759 O.3     1  LIG1        0.0000
     57 O           9.4759    5.6635    7.2694 O.3     1  LIG1        0.0000
     58 O          16.3899   20.2023   18.5965 O.3     1  LIG1        0.0000
     59 O          16.3899    5.6635   18.5965 O.3     1  LIG1        0.0000
     60 O           9.4759   20.2023    7.2694 O.3     1  LIG1        0.0000
     61 O           9.4759   20.2023   18.5965 O.3     1  LIG1        0.0000
     62 O          16.3899    5.6635    7.2694 O.3     1  LIG1        0.0000
     63 O          16.3899   20.2023    7.2694 O.3     1  LIG1        0.0000
     64 O           9.4759    5.6635   18.5965 O.3     1  LIG1        0.0000
     65 O           9.4759    7.2694   20.2023 O.3     1  LIG1        0.0000
     66 O          16.3899   18.5965    5.6635 O.3     1  LIG1        0.0000
     67 O          16.3899   18.5965   20.2023 O.3     1  LIG1        0.0000
     68 O           9.4759    7.2694    5.6635 O.3     1  LIG1        0.0000
     69 O           9.4759   18.5965    5.6635 O.3     1  LIG1        0.0000
     70 O          16.3899    7.2694   20.2023 O.3     1  LIG1        0.0000
     71 O          16.3899    7.2694    5.6635 O.3     1  LIG1        0.0000
     72 O           9.4759   18.5965   20.2023 O.3     1  LIG1        0.0000
     73 O           7.2694    5.6635   16.3899 O.3     1  LIG1        0.0000
     74 O          18.5965   20.2023    9.4759 O.3     1  LIG1        0.0000
     75 O          18.5965    5.6635    9.4759 O.3     1  LIG1        0.0000
     76 O           7.2694   20.2023   16.3899 O.3     1  LIG1        0.0000
     77 O          18.5965   20.2023   16.3899 O.3     1  LIG1        0.0000
     78 O           7.2694    5.6635    9.4759 O.3     1  LIG1        0.0000
     79 O           7.2694   20.2023    9.4759 O.3     1  LIG1        0.0000
     80 O          18.5965    5.6635   16.3899 O.3     1  LIG1        0.0000
     81 O           5.6635    9.4759   18.5965 O.3     1  LIG1        0.0000
     82 O          20.2023   16.3899    7.2694 O.3     1  LIG1        0.0000
     83 O           5.6635   16.3899    7.2694 O.3     1  LIG1        0.0000
     84 O          20.2023    9.4759   18.5965 O.3     1  LIG1        0.0000
     85 O          20.2023    9.4759    7.2694 O.3     1  LIG1        0.0000
     86 O           5.6635   16.3899   18.5965 O.3     1  LIG1        0.0000
     87 O          20.2023   16.3899   18.5965 O.3     1  LIG1        0.0000
     88 O           5.6635    9.4759    7.2694 O.3     1  LIG1        0.0000
     89 O           7.2694   22.4088   18.5965 O.2     1  LIG1        0.0000
     90 O          18.5965    3.4570    7.2694 O.2     1  LIG1        0.0000
     91 O          18.5965    3.4570   18.5965 O.2     1  LIG1        0.0000
     92 O           7.2694   22.4088    7.2694 O.2     1  LIG1        0.0000
     93 O          18.5965   22.4088    7.2694 O.2     1  LIG1        0.0000
     94 O           7.2694    3.4570   18.5965 O.2     1  LIG1        0.0000
     95 O           7.2694    3.4570    7.2694 O.2     1  LIG1        0.0000
     96 O          18.5965   22.4088   18.5965 O.2     1  LIG1        0.0000
     97 O           5.6635   20.2023   22.4088 O.2     1  LIG1        0.0000
     98 O          20.2023    5.6635    3.4570 O.2     1  LIG1        0.0000
     99 O           5.6635    5.6635    3.4570 O.2     1  LIG1        0.0000
    100 O          20.2023   20.2023   22.4088 O.2     1  LIG1        0.0000
    101 O          20.2023    5.6635   22.4088 O.2     1  LIG1        0.0000
    102 O           5.6635   20.2023    3.4570 O.2     1  LIG1        0.0000
    103 O          20.2023   20.2023    3.4570 O.2     1  LIG1        0.0000
    104 O           5.6635    5.6635   22.4088 O.2     1  LIG1        0.0000
    105 O           7.2694   18.5965    3.4570 O.2     1  LIG1        0.0000
    106 O          18.5965    7.2694   22.4088 O.2     1  LIG1        0.0000
    107 O          18.5965   18.5965   22.4088 O.2     1  LIG1        0.0000
    108 O           7.2694    7.2694    3.4570 O.2     1  LIG1        0.0000
    109 O          18.5965    7.2694    3.4570 O.2     1  LIG1        0.0000
    110 O           7.2694   18.5965   22.4088 O.2     1  LIG1        0.0000
    111 O           7.2694    7.2694   22.4088 O.2     1  LIG1        0.0000
    112 O          18.5965   18.5965    3.4570 O.2     1  LIG1        0.0000
    113 O           5.6635   22.4088    5.6635 O.2     1  LIG1        0.0000
    114 O          20.2023    3.4570   20.2023 O.2     1  LIG1        0.0000
    115 O           5.6635    3.4570   20.2023 O.2     1  LIG1        0.0000
    116 O          20.2023   22.4088    5.6635 O.2     1  LIG1        0.0000
    117 O          20.2023   22.4088   20.2023 O.2     1  LIG1        0.0000
    118 O           5.6635    3.4570    5.6635 O.2     1  LIG1        0.0000
    119 O          20.2023    3.4570    5.6635 O.2     1  LIG1        0.0000
    120 O           5.6635   22.4088   20.2023 O.2     1  LIG1        0.0000
    121 O          22.4088    5.6635   20.2023 O.2     1  LIG1        0.0000
    122 O           3.4570   20.2023    5.6635 O.2     1  LIG1        0.0000
    123 O           3.4570    5.6635    5.6635 O.2     1  LIG1        0.0000
    124 O          22.4088   20.2023   20.2023 O.2     1  LIG1        0.0000
    125 O          22.4088   20.2023    5.6635 O.2     1  LIG1        0.0000
    126 O           3.4570    5.6635   20.2023 O.2     1  LIG1        0.0000
    127 O           3.4570   20.2023   20.2023 O.2     1  LIG1        0.0000
    128 O          22.4088    5.6635    5.6635 O.2     1  LIG1        0.0000
    129 O          22.4088    7.2694    7.2694 O.2     1  LIG1        0.0000
    130 O           3.4570   18.5965   18.5965 O.2     1  LIG1        0.0000
    131 O           3.4570   18.5965    7.2694 O.2     1  LIG1        0.0000
    132 O          22.4088    7.2694   18.5965 O.2     1  LIG1        0.0000
    133 O          22.4088   18.5965   18.5965 O.2     1  LIG1        0.0000
    134 O           3.4570    7.2694    7.2694 O.2     1  LIG1        0.0000
    135 O           3.4570    7.2694   18.5965 O.2     1  LIG1        0.0000
    136 O          22.4088   18.5965    7.2694 O.2     1  LIG1        0.0000
    137 C           6.4665   10.0519    6.4665 C.3     1  LIG1        0.0000
    138 C          19.3994   15.8139   19.3994 C.3     1  LIG1        0.0000
    139 C          19.3994   15.8139    6.4665 C.3     1  LIG1        0.0000
    140 C           6.4665   10.0519   19.3994 C.3     1  LIG1        0.0000
    141 C          19.3994   10.0519   19.3994 C.3     1  LIG1        0.0000
    142 C           6.4665   15.8139    6.4665 C.3     1  LIG1        0.0000
    143 C           6.4665   15.8139   19.3994 C.3     1  LIG1        0.0000
    144 C          19.3994   10.0519    6.4665 C.3     1  LIG1        0.0000
    145 C           6.4665    6.4665   10.0519 C.3     1  LIG1        0.0000
    146 C          19.3994   19.3994   15.8139 C.3     1  LIG1        0.0000
    147 C           6.4665   19.3994   15.8139 C.3     1  LIG1        0.0000
    148 C          19.3994    6.4665   10.0519 C.3     1  LIG1        0.0000
    149 C          19.3994   19.3994   10.0519 C.3     1  LIG1        0.0000
    150 C           6.4665    6.4665   15.8139 C.3     1  LIG1        0.0000
    151 C          19.3994    6.4665   15.8139 C.3     1  LIG1        0.0000
    152 C           6.4665   19.3994   10.0519 C.3     1  LIG1        0.0000
    153 C          10.0519    6.4665    6.4665 C.3     1  LIG1        0.0000
    154 C          15.8139   19.3994   19.3994 C.3     1  LIG1        0.0000
    155 C          15.8139    6.4665   19.3994 C.3     1  LIG1        0.0000
    156 C          10.0519   19.3994    6.4665 C.3     1  LIG1        0.0000
    157 C          10.0519   19.3994   19.3994 C.3     1  LIG1        0.0000
    158 C          15.8139    6.4665    6.4665 C.3     1  LIG1        0.0000
    159 C          15.8139   19.3994    6.4665 C.3     1  LIG1        0.0000
    160 C          10.0519    6.4665   19.3994 C.3     1  LIG1        0.0000
    161 C           6.4665   22.9848   19.3994 C.2     1  LIG1        0.0000
    162 C          19.3994    2.8810    6.4665 C.2     1  LIG1        0.0000
    163 C          19.3994    2.8810   19.3994 C.2     1  LIG1        0.0000
    164 C           6.4665   22.9848    6.4665 C.2     1  LIG1        0.0000
    165 C          19.3994   22.9848    6.4665 C.2     1  LIG1        0.0000
    166 C           6.4665    2.8810   19.3994 C.2     1  LIG1        0.0000
    167 C           6.4665    2.8810    6.4665 C.2     1  LIG1        0.0000
    168 C          19.3994   22.9848   19.3994 C.2     1  LIG1        0.0000
    169 C           6.4665   19.3994   22.9848 C.2     1  LIG1        0.0000
    170 C          19.3994    6.4665    2.8810 C.2     1  LIG1        0.0000
    171 C           6.4665    6.4665    2.8810 C.2     1  LIG1        0.0000
    172 C          19.3994   19.3994   22.9848 C.2     1  LIG1        0.0000
    173 C          19.3994    6.4665   22.9848 C.2     1  LIG1        0.0000
    174 C           6.4665   19.3994    2.8810 C.2     1  LIG1        0.0000
    175 C          19.3994   19.3994    2.8810 C.2     1  LIG1        0.0000
    176 C           6.4665    6.4665   22.9848 C.2     1  LIG1        0.0000
    177 C          22.9848    6.4665   19.3994 C.2     1  LIG1        0.0000
    178 C           2.8810   19.3994    6.4665 C.2     1  LIG1        0.0000
    179 C           2.8810    6.4665    6.4665 C.2     1  LIG1        0.0000
    180 C          22.9848   19.3994   19.3994 C.2     1  LIG1        0.0000
    181 C          22.9848   19.3994    6.4665 C.2     1  LIG1        0.0000
    182 C           2.8810    6.4665   19.3994 C.2     1  LIG1        0.0000
    183 C           2.8810   19.3994   19.3994 C.2     1  LIG1        0.0000
    184 C          22.9848    6.4665    6.4665 C.2     1  LIG1        0.0000
    185 C           6.4665   11.5411    6.4665 C.ar    1  LIG1        0.0000
    186 C          19.3994   14.3247   19.3994 C.ar    1  LIG1        0.0000
    187 C          19.3994   14.3247    6.4665 C.ar    1  LIG1        0.0000
    188 C           6.4665   11.5411   19.3994 C.ar    1  LIG1        0.0000
    189 C          19.3994   11.5411   19.3994 C.ar    1  LIG1        0.0000
    190 C           6.4665   14.3247    6.4665 C.ar    1  LIG1        0.0000
    191 C           6.4665   14.3247   19.3994 C.ar    1  LIG1        0.0000
    192 C          19.3994   11.5411    6.4665 C.ar    1  LIG1        0.0000
    193 C           6.4665    6.4665   11.5411 C.ar    1  LIG1        0.0000
    194 C          19.3994   19.3994   14.3247 C.ar    1  LIG1        0.0000
    195 C           6.4665   19.3994   14.3247 C.ar    1  LIG1        0.0000
    196 C          19.3994    6.4665   11.5411 C.ar    1  LIG1        0.0000
    197 C          19.3994   19.3994   11.5411 C.ar    1  LIG1        0.0000
    198 C           6.4665    6.4665   14.3247 C.ar    1  LIG1        0.0000
    199 C          19.3994    6.4665   14.3247 C.ar    1  LIG1        0.0000
    200 C           6.4665   19.3994   11.5411 C.ar    1  LIG1        0.0000
    201 C          11.5411    6.4665    6.4665 C.ar    1  LIG1        0.0000
    202 C          14.3247   19.3994   19.3994 C.ar    1  LIG1        0.0000
    203 C          14.3247    6.4665   19.3994 C.ar    1  LIG1        0.0000
    204 C          11.5411   19.3994    6.4665 C.ar    1  LIG1        0.0000
    205 C          11.5411   19.3994   19.3994 C.ar    1  LIG1        0.0000
    206 C          14.3247    6.4665    6.4665 C.ar    1  LIG1        0.0000
    207 C          14.3247   19.3994    6.4665 C.ar    1  LIG1        0.0000
    208 C          11.5411    6.4665   19.3994 C.ar    1  LIG1        0.0000
    209 C           6.4665   24.4741   19.3994 C.2     1  LIG1        0.0000
    210 C          19.3994    1.3918    6.4665 C.2     1  LIG1        0.0000
    211 C          19.3994    1.3918   19.3994 C.2     1  LIG1        0.0000
    212 C           6.4665   24.4741    6.4665 C.2     1  LIG1        0.0000
    213 C          19.3994   24.4741    6.4665 C.2     1  LIG1        0.0000
    214 C           6.4665    1.3918   19.3994 C.2     1  LIG1        0.0000
    215 C           6.4665    1.3918    6.4665 C.2     1  LIG1        0.0000
    216 C          19.3994   24.4741   19.3994 C.2     1  LIG1        0.0000
    217 C           6.4665   19.3994   24.4741 C.2     1  LIG1        0.0000
    218 C          19.3994    6.4665    1.3918 C.2     1  LIG1        0.0000
    219 C           6.4665    6.4665    1.3918 C.2     1  LIG1        0.0000
    220 C          19.3994   19.3994   24.4741 C.2     1  LIG1        0.0000
    221 C          19.3994    6.4665   24.4741 C.2     1  LIG1        0.0000
    222 C           6.4665   19.3994    1.3918 C.2     1  LIG1        0.0000
    223 C          19.3994   19.3994    1.3918 C.2     1  LIG1        0.0000
    224 C           6.4665    6.4665   24.4741 C.2     1  LIG1        0.0000
    225 C          24.4741    6.4665   19.3994 C.2     1  LIG1        0.0000
    226 C           1.3918   19.3994    6.4665 C.2     1  LIG1        0.0000
    227 C           1.3918    6.4665    6.4665 C.2     1  LIG1        0.0000
    228 C          24.4741   19.3994   19.3994 C.2     1  LIG1        0.0000
    229 C          24.4741   19.3994    6.4665 C.2     1  LIG1        0.0000
    230 C           1.3918    6.4665   19.3994 C.2     1  LIG1        0.0000
    231 C           1.3918   19.3994   19.3994 C.2     1  LIG1        0.0000
    232 C          24.4741    6.4665    6.4665 C.2     1  LIG1        0.0000
    233 C           7.3244   12.2392    5.6086 C.ar    1  LIG1        0.0000
    234 C          18.5415   13.6267   20.2573 C.ar    1  LIG1        0.0000
    235 C          18.5415   13.6267    5.6086 C.ar    1  LIG1        0.0000
    236 C           7.3244   12.2392   20.2573 C.ar    1  LIG1        0.0000
    237 C          18.5415   12.2392   20.2573 C.ar    1  LIG1        0.0000
    238 C           7.3244   13.6267    5.6086 C.ar    1  LIG1        0.0000
    239 C           7.3244   13.6267   20.2573 C.ar    1  LIG1        0.0000
    240 C          18.5415   12.2392    5.6086 C.ar    1  LIG1        0.0000
    241 C           5.6086    7.3244   12.2392 C.ar    1  LIG1        0.0000
    242 C          20.2573   18.5415   13.6267 C.ar    1  LIG1        0.0000
    243 C           5.6086   18.5415   13.6267 C.ar    1  LIG1        0.0000
    244 C          20.2573    7.3244   12.2392 C.ar    1  LIG1        0.0000
    245 C          20.2573   18.5415   12.2392 C.ar    1  LIG1        0.0000
    246 C           5.6086    7.3244   13.6267 C.ar    1  LIG1        0.0000
    247 C          20.2573    7.3244   13.6267 C.ar    1  LIG1        0.0000
    248 C           5.6086   18.5415   12.2392 C.ar    1  LIG1        0.0000
    249 C          12.2392    5.6086    7.3244 C.ar    1  LIG1        0.0000
    250 C          13.6267   20.2573   18.5415 C.ar    1  LIG1        0.0000
    251 C          13.6267    5.6086   18.5415 C.ar    1  LIG1        0.0000
    252 C          12.2392   20.2573    7.3244 C.ar    1  LIG1        0.0000
    253 C          12.2392   20.2573   18.5415 C.ar    1  LIG1        0.0000
    254 C          13.6267    5.6086    7.3244 C.ar    1  LIG1        0.0000
    255 C          13.6267   20.2573    7.3244 C.ar    1  LIG1        0.0000
    256 C          12.2392    5.6086   18.5415 C.ar    1  LIG1        0.0000
    257 C          12.2392    7.3244   20.2573 C.ar    1  LIG1        0.0000
    258 C          13.6267   18.5415    5.6086 C.ar    1  LIG1        0.0000
    259 C          13.6267   18.5415   20.2573 C.ar    1  LIG1        0.0000
    260 C          12.2392    7.3244    5.6086 C.ar    1  LIG1        0.0000
    261 C          12.2392   18.5415    5.6086 C.ar    1  LIG1        0.0000
    262 C          13.6267    7.3244   20.2573 C.ar    1  LIG1        0.0000
    263 C          13.6267    7.3244    5.6086 C.ar    1  LIG1        0.0000
    264 C          12.2392   18.5415   20.2573 C.ar    1  LIG1        0.0000
    265 C           7.3244    5.6086   13.6267 C.ar    1  LIG1        0.0000
    266 C          18.5415   20.2573   12.2392 C.ar    1  LIG1        0.0000
    267 C          18.5415    5.6086   12.2392 C.ar    1  LIG1        0.0000
    268 C           7.3244   20.2573   13.6267 C.ar    1  LIG1        0.0000
    269 C          18.5415   20.2573   13.6267 C.ar    1  LIG1        0.0000
    270 C           7.3244    5.6086   12.2392 C.ar    1  LIG1        0.0000
    271 C           7.3244   20.2573   12.2392 C.ar    1  LIG1        0.0000
    272 C          18.5415    5.6086   13.6267 C.ar    1  LIG1        0.0000
    273 C           5.6086   12.2392   18.5415 C.ar    1  LIG1        0.0000
    274 C          20.2573   13.6267    7.3244 C.ar    1  LIG1        0.0000
    275 C           5.6086   13.6267    7.3244 C.ar    1  LIG1        0.0000
    276 C          20.2573   12.2392   18.5415 C.ar    1  LIG1        0.0000
    277 C          20.2573   12.2392    7.3244 C.ar    1  LIG1        0.0000
    278 C           5.6086   13.6267   18.5415 C.ar    1  LIG1        0.0000
    279 C          20.2573   13.6267   18.5415 C.ar    1  LIG1        0.0000
    280 C           5.6086   12.2392    7.3244 C.ar    1  LIG1        0.0000
    281 C           7.3244   25.1721   18.5415 C.3     1  LIG1        0.0000
    282 C          18.5415    0.6937    7.3244 C.3     1  LIG1        0.0000
    283 C          18.5415    0.6937   18.5415 C.3     1  LIG1        0.0000
    284 C           7.3244   25.1721    7.3244 C.3     1  LIG1        0.0000
    285 C          18.5415   25.1721    7.3244 C.3     1  LIG1        0.0000
    286 C           7.3244    0.6937   18.5415 C.3     1  LIG1        0.0000
    287 C           7.3244    0.6937    7.3244 C.3     1  LIG1        0.0000
    288 C          18.5415   25.1721   18.5415 C.3     1  LIG1        0.0000
    289 C           5.6086   20.2573   25.1721 C.3     1  LIG1        0.0000
    290 C          20.2573    5.6086    0.6937 C.3     1  LIG1        0.0000
    291 C           5.6086    5.6086    0.6937 C.3     1  LIG1        0.0000
    292 C          20.2573   20.2573   25.1721 C.3     1  LIG1        0.0000
    293 C          20.2573    5.6086   25.1721 C.3     1  LIG1        0.0000
    294 C           5.6086   20.2573    0.6937 C.3     1  LIG1        0.0000
    295 C          20.2573   20.2573    0.6937 C.3     1  LIG1        0.0000
    296 C           5.6086    5.6086   25.1721 C.3     1  LIG1        0.0000
    297 C           7.3244   18.5415    0.6937 C.3     1  LIG1        0.0000
    298 C          18.5415    7.3244   25.1721 C.3     1  LIG1        0.0000
    299 C          18.5415   18.5415   25.1721 C.3     1  LIG1        0.0000
    300 C           7.3244    7.3244    0.6937 C.3     1  LIG1        0.0000
    301 C          18.5415    7.3244    0.6937 C.3     1  LIG1        0.0000
    302 C           7.3244   18.5415   25.1721 C.3     1  LIG1        0.0000
    303 C           7.3244    7.3244   25.1721 C.3     1  LIG1        0.0000
    304 C          18.5415   18.5415    0.6937 C.3     1  LIG1        0.0000
    305 C           5.6086   25.1721    5.6086 C.3     1  LIG1        0.0000
    306 C          20.2573    0.6937   20.2573 C.3     1  LIG1        0.0000
    307 C           5.6086    0.6937   20.2573 C.3     1  LIG1        0.0000
    308 C          20.2573   25.1721    5.6086 C.3     1  LIG1        0.0000
    309 C          20.2573   25.1721   20.2573 C.3     1  LIG1        0.0000
    310 C           5.6086    0.6937    5.6086 C.3     1  LIG1        0.0000
    311 C          20.2573    0.6937    5.6086 C.3     1  LIG1        0.0000
    312 C           5.6086   25.1721   20.2573 C.3     1  LIG1        0.0000
    313 C          25.1721    5.6086   20.2573 C.3     1  LIG1        0.0000
    314 C           0.6937   20.2573    5.6086 C.3     1  LIG1        0.0000
    315 C           0.6937    5.6086    5.6086 C.3     1  LIG1        0.0000
    316 C          25.1721   20.2573   20.2573 C.3     1  LIG1        0.0000
    317 C          25.1721   20.2573    5.6086 C.3     1  LIG1        0.0000
    318 C           0.6937    5.6086   20.2573 C.3     1  LIG1        0.0000
    319 C           0.6937   20.2573   20.2573 C.3     1  LIG1        0.0000
    320 C          25.1721    5.6086    5.6086 C.3     1  LIG1        0.0000
    321 C          25.1721    7.3244    7.3244 C.3     1  LIG1        0.0000
    322 C           0.6937   18.5415   18.5415 C.3     1  LIG1        0.0000
    323 C           0.6937   18.5415    7.3244 C.3     1  LIG1        0.0000
    324 C          25.1721    7.3244   18.5415 C.3     1  LIG1        0.0000
    325 C          25.1721   18.5415   18.5415 C.3     1  LIG1        0.0000
    326 C           0.6937    7.3244    7.3244 C.3     1  LIG1        0.0000
    327 C           0.6937    7.3244   18.5415 C.3     1  LIG1        0.0000
    328 C          25.1721   18.5415    7.3244 C.3     1  LIG1        0.0000
    329 H           7.9845   11.6704    4.9484 H       1  LIG1        0.0000
    330 H          17.8813   14.1954   20.9174 H       1  LIG1        0.0000
    331 H          17.8813   14.1954    4.9484 H       1  LIG1        0.0000
    332 H           7.9845   11.6704   20.9174 H       1  LIG1        0.0000
    333 H          17.8813   11.6704   20.9174 H       1  LIG1        0.0000
    334 H           7.9845   14.1954    4.9484 H       1  LIG1        0.0000
    335 H           7.9845   14.1954   20.9174 H       1  LIG1        0.0000
    336 H          17.8813   11.6704    4.9484 H       1  LIG1        0.0000
    337 H           4.9484    7.9845   11.6704 H       1  LIG1        0.0000
    338 H          20.9174   17.8813   14.1954 H       1  LIG1        0.0000
    339 H           4.9484   17.8813   14.1954 H       1  LIG1        0.0000
    340 H          20.9174    7.9845   11.6704 H       1  LIG1        0.0000
    341 H          20.9174   17.8813   11.6704 H       1  LIG1        0.0000
    342 H           4.9484    7.9845   14.1954 H       1  LIG1        0.0000
    343 H          20.9174    7.9845   14.1954 H       1  LIG1        0.0000
    344 H           4.9484   17.8813   11.6704 H       1  LIG1        0.0000
    345 H          11.6704    4.9484    7.9845 H       1  LIG1        0.0000
    346 H          14.1954   20.9174   17.8813 H       1  LIG1        0.0000
    347 H          14.1954    4.9484   17.8813 H       1  LIG1        0.0000
    348 H          11.6704   20.9174    7.9845 H       1  LIG1        0.0000
    349 H          11.6704   20.9174   17.8813 H       1  LIG1        0.0000
    350 H          14.1954    4.9484    7.9845 H       1  LIG1        0.0000
    351 H          14.1954   20.9174    7.9845 H       1  LIG1        0.0000
    352 H          11.6704    4.9484   17.8813 H       1  LIG1        0.0000
    353 H          11.6704    7.9845   20.9174 H       1  LIG1        0.0000
    354 H          14.1954   17.8813    4.9484 H       1  LIG1        0.0000
    355 H          14.1954   17.8813   20.9174 H       1  LIG1        0.0000
    356 H          11.6704    7.9845    4.9484 H       1  LIG1        0.0000
    357 H          11.6704   17.8813    4.9484 H       1  LIG1        0.0000
    358 H          14.1954    7.9845   20.9174 H       1  LIG1        0.0000
    359 H          14.1954    7.9845    4.9484 H       1  LIG1        0.0000
    360 H          11.6704   17.8813   20.9174 H       1  LIG1        0.0000
    361 H           7.9845    4.9484   14.1954 H       1  LIG1        0.0000
    362 H          17.8813   20.9174   11.6704 H       1  LIG1        0.0000
    363 H          17.8813    4.9484   11.6704 H       1  LIG1        0.0000
    364 H           7.9845   20.9174   14.1954 H       1  LIG1        0.0000
    365 H          17.8813   20.9174   14.1954 H       1  LIG1        0.0000
    366 H           7.9845    4.9484   11.6704 H       1  LIG1        0.0000
    367 H           7.9845   20.9174   11.6704 H       1  LIG1        0.0000
    368 H          17.8813    4.9484   14.1954 H       1  LIG1        0.0000
    369 H           4.9484   11.6704   17.8813 H       1  LIG1        0.0000
    370 H          20.9174   14.1954    7.9845 H       1  LIG1        0.0000
    371 H           4.9484   14.1954    7.9845 H       1  LIG1        0.0000
    372 H          20.9174   11.6704   17.8813 H       1  LIG1        0.0000
    373 H          20.9174   11.6704    7.9845 H       1  LIG1        0.0000
    374 H           4.9484   14.1954   17.8813 H       1  LIG1        0.0000
    375 H          20.9174   14.1954   17.8813 H       1  LIG1        0.0000
    376 H           4.9484   11.6704    7.9845 H       1  LIG1        0.0000
    377 H           7.9845   24.6033   17.8813 H       1  LIG1        0.0000
    378 H          17.8813    1.2625    7.9845 H       1  LIG1        0.0000
    379 H          17.8813    1.2625   17.8813 H       1  LIG1        0.0000
    380 H           7.9845   24.6033    7.9845 H       1  LIG1        0.0000
    381 H          17.8813   24.6033    7.9845 H       1  LIG1        0.0000
    382 H           7.9845    1.2625   17.8813 H       1  LIG1        0.0000
    383 H           7.9845    1.2625    7.9845 H       1  LIG1        0.0000
    384 H          17.8813   24.6033   17.8813 H       1  LIG1        0.0000
    385 H           4.9484   20.9174   24.6033 H       1  LIG1        0.0000
    386 H          20.9174    4.9484    1.2625 H       1  LIG1        0.0000
    387 H           4.9484    4.9484    1.2625 H       1  LIG1        0.0000
    388 H          20.9174   20.9174   24.6033 H       1  LIG1        0.0000
    389 H          20.9174    4.9484   24.6033 H       1  LIG1        0.0000
    390 H           4.9484   20.9174    1.2625 H       1  LIG1        0.0000
    391 H          20.9174   20.9174    1.2625 H       1  LIG1        0.0000
    392 H           4.9484    4.9484   24.6033 H       1  LIG1        0.0000
    393 H           7.9845   17.8813    1.2625 H       1  LIG1        0.0000
    394 H          17.8813    7.9845   24.6033 H       1  LIG1        0.0000
    395 H          17.8813   17.8813   24.6033 H       1  LIG1        0.0000
    396 H           7.9845    7.9845    1.2625 H       1  LIG1        0.0000
    397 H          17.8813    7.9845    1.2625 H       1  LIG1        0.0000
    398 H           7.9845   17.8813   24.6033 H       1  LIG1        0.0000
    399 H           7.9845    7.9845   24.6033 H       1  LIG1        0.0000
    400 H          17.8813   17.8813    1.2625 H       1  LIG1        0.0000
    401 H           4.9484   24.6033    4.9484 H       1  LIG1        0.0000
    402 H          20.9174    1.2625   20.9174 H       1  LIG1        0.0000
    403 H           4.9484    1.2625   20.9174 H       1  LIG1        0.0000
    404 H          20.9174   24.6033    4.9484 H       1  LIG1        0.0000
    405 H          20.9174   24.6033   20.9174 H       1  LIG1        0.0000
    406 H           4.9484    1.2625    4.9484 H       1  LIG1        0.0000
    407 H          20.9174    1.2625    4.9484 H       1  LIG1        0.0000
    408 H           4.9484   24.6033   20.9174 H       1  LIG1        0.0000
    409 H          24.6033    4.9484   20.9174 H       1  LIG1        0.0000
    410 H           1.2625   20.9174    4.9484 H       1  LIG1        0.0000
    411 H           1.2625    4.9484    4.9484 H       1  LIG1        0.0000
    412 H          24.6033   20.9174   20.9174 H       1  LIG1        0.0000
    413 H          24.6033   20.9174    4.9484 H       1  LIG1        0.0000
    414 H           1.2625    4.9484   20.9174 H       1  LIG1        0.0000
    415 H           1.2625   20.9174   20.9174 H       1  LIG1        0.0000
    416 H          24.6033    4.9484    4.9484 H       1  LIG1        0.0000
    417 H          24.6033    7.9845    7.9845 H       1  LIG1        0.0000
    418 H           1.2625   17.8813   17.8813 H       1  LIG1        0.0000
    419 H           1.2625   17.8813    7.9845 H       1  LIG1        0.0000
    420 H          24.6033    7.9845   17.8813 H       1  LIG1        0.0000
    421 H          24.6033   17.8813   17.8813 H       1  LIG1        0.0000
    422 H           1.2625    7.9845    7.9845 H       1  LIG1        0.0000
    423 H           1.2625    7.9845   17.8813 H       1  LIG1        0.0000
    424 H          24.6033   17.8813    7.9845 H       1  LIG1        0.0000
@<TRIPOS>BOND
     1   304   400    1
     2   304   223    1
     3   301   397    1
     4   301   218    1
     5   290   386    1
     6   290   218    1
     7   300   396    1
     8   300   219    1
     9   291   387    1
    10   291   219    1
    11   294   390    1
    12   294   222    1
    13   295   391    1
    14   295   223    1
    15   297   393    1
    16   297   222    1
    17   223   175    2
    18   222   174    2
    19   219   171    2
    20   218   170    2
    21   175   112    1
    22   175   103    1
    23   174   105    1
    24   174   102    1
    25   171    99    1
    26   171   108    1
    27   170    98    1
    28   170   109    1
    29    98    26    1
    30   112     3    1
    31   109     8    1
    32    99    27    1
    33   108     1    1
    34   105     6    1
    35   103    31    1
    36   102    30    1
    37   359   263    1
    38   336   240    1
    39   334   238    1
    40   354   258    1
    41   356   260    1
    42   331   235    1
    43   329   233    1
    44   357   261    1
    45   416   320    1
    46   413   317    1
    47   411   315    1
    48   410   314    1
    49   407   311    1
    50   406   310    1
    51   404   308    1
    52   401   305    1
    53     1    41    1
    54     1    68    1
    55    26   119    1
    56    26   128    1
    57     3    66    1
    58     3    43    1
    59     3    35    1
    60     8    48    1
    61     8    71    1
    62     8    40    1
    63     6    69    1
    64     6    46    1
    65     6    38    1
    66    31   116    1
    67    31   125    1
    68    30   113    1
    69    30   122    1
    70    27   118    1
    71    27   123    1
    72    27    33    1
    73   305   212    1
    74   308   213    1
    75   235   240   ar
    76   235   187   ar
    77   310   215    1
    78   311   210    1
    79   314   226    1
    80   315   227    1
    81   317   229    1
    82   320   232    1
    83   263   260   ar
    84   263   206   ar
    85   261   258   ar
    86   261   204   ar
    87   240   192   ar
    88   238   233   ar
    89   238   190   ar
    90   233   185   ar
    91   260   201   ar
    92   258   207   ar
    93    69   156    1
    94   113   164    1
    95    46   142    1
    96    48   144    1
    97    41   137    1
    98   116   165    1
    99   118   167    1
   100   119   162    1
   101   128   184    1
   102    68   153    1
   103    66   159    1
   104   122   178    1
   105   123   179    1
   106   125   181    1
   107    71   158    1
   108    43   139    1
   109   212   164    2
   110   212   284    1
   111   158   206    1
   112   158    62    1
   113    35    13    1
   114   139   187    1
   115   139    82    1
   116   159   207    1
   117   159    63    1
   118   156   204    1
   119   156    60    1
   120   213   165    2
   121   213   285    1
   122   215   167    2
   123   215   287    1
   124   153   201    1
   125   153    57    1
   126   226   178    2
   127   226   323    1
   128   137   185    1
   129   137    88    1
   130   142   190    1
   131   142    83    1
   132   227   179    2
   133   227   326    1
   134   144   192    1
   135   144    85    1
   136   232   184    2
   137   232   321    1
   138   229   181    2
   139   229   328    1
   140   204   252   ar
   141   181   136    1
   142   179   134    1
   143   178   131    1
   144   184   129    1
   145   185   280   ar
   146   187   274   ar
   147   190   275   ar
   148   192   277   ar
   149   201   249   ar
   150   167    95    1
   151   210   162    2
   152   210   282    1
   153   165    93    1
   154   164    92    1
   155   206   254   ar
   156   207   255   ar
   157   162    90    1
   158    33     9    1
   159    40    22    1
   160    38    16    1
   161   131    16    1
   162    57    17    1
   163   136    13    1
   164    95    17    1
   165   134     9    1
   166    60    20    1
   167    82    13    1
   168    62    22    1
   169   129    12    1
   170    63    23    1
   171    93    23    1
   172    92    20    1
   173    90    22    1
   174    88     9    1
   175    85    12    1
   176    83    16    1
   177   277   274   ar
   178   277   373    1
   179   252   255   ar
   180   252   348    1
   181   287   383    1
   182   285   381    1
   183   249   254   ar
   184   249   345    1
   185   284   380    1
   186   282   378    1
   187   321   417    1
   188   323   419    1
   189   280   275   ar
   190   280   376    1
   191   326   422    1
   192   328   424    1
   193   275   371    1
   194   274   370    1
   195   255   351    1
   196   254   350    1
   197    23    74    1
   198    22    75    1
   199    20    79    1
   200    16    56    1
   201    13    53    1
   202    12    52    1
   203    17    78    1
   204     9    49    1
   205    49   145    1
   206    74   149    1
   207    79   152    1
   208    56   152    1
   209    75   148    1
   210    78   145    1
   211    52   148    1
   212    53   149    1
   213   145   193    1
   214   148   196    1
   215   152   200    1
   216   149   197    1
   217   193   241   ar
   218   193   270   ar
   219   196   244   ar
   220   196   267   ar
   221   197   245   ar
   222   197   266   ar
   223   200   248   ar
   224   200   271   ar
   225   344   248    1
   226   362   266    1
   227   363   267    1
   228   337   241    1
   229   366   270    1
   230   367   271    1
   231   341   245    1
   232   340   244    1
   233   241   246   ar
   234   270   265   ar
   235   244   247   ar
   236   245   242   ar
   237   248   243   ar
   238   267   272   ar
   239   266   269   ar
   240   271   268   ar
   241   268   364    1
   242   268   195   ar
   243   269   365    1
   244   269   194   ar
   245   247   343    1
   246   247   199   ar
   247   246   342    1
   248   246   198   ar
   249   265   361    1
   250   265   198   ar
   251   272   368    1
   252   272   199   ar
   253   243   339    1
   254   243   195   ar
   255   242   338    1
   256   242   194   ar
   257   199   151    1
   258   198   150    1
   259   195   147    1
   260   194   146    1
   261   146    50    1
   262   146    77    1
   263   147    51    1
   264   147    76    1
   265   151    80    1
   266   151    55    1
   267   150    73    1
   268   150    54    1
   269    73    24    1
   270    50    10    1
   271    51    11    1
   272    80    19    1
   273    54    14    1
   274    77    18    1
   275    76    21    1
   276    55    15    1
   277   374   278    1
   278   375   279    1
   279   372   276    1
   280   423   327    1
   281   377   281    1
   282   369   273    1
   283   421   325    1
   284   384   288    1
   285   382   286    1
   286   379   283    1
   287   418   322    1
   288   352   256    1
   289   346   250    1
   290   420   324    1
   291   347   251    1
   292   349   253    1
   293    11    86    1
   294    11   130    1
   295    11    39    1
   296    14   135    1
   297    14    81    1
   298    14    36    1
   299    15    84    1
   300    15   132    1
   301    18    96    1
   302    18    58    1
   303    19    91    1
   304    19    59    1
   305    19    37    1
   306    21    89    1
   307    21    61    1
   308    24    94    1
   309    24    64    1
   310    24    36    1
   311    10   133    1
   312    10    87    1
   313    10    34    1
   314   281   209    1
   315   283   211    1
   316   322   231    1
   317   327   230    1
   318   286   214    1
   319   288   216    1
   320   279   276   ar
   321   279   186   ar
   322   325   228    1
   323   324   225    1
   324   278   273   ar
   325   278   191   ar
   326   276   189   ar
   327   273   188   ar
   328   256   251   ar
   329   256   208   ar
   330   253   250   ar
   331   253   205   ar
   332   250   202   ar
   333   251   203   ar
   334   133   180    1
   335    91   163    1
   336    94   166    1
   337    89   161    1
   338    87   138    1
   339    96   168    1
   340   135   182    1
   341    86   143    1
   342    84   141    1
   343    81   140    1
   344    64   160    1
   345   132   177    1
   346    61   157    1
   347    59   155    1
   348    58   154    1
   349   130   183    1
   350   160   208    1
   351   160    65    1
   352   209   161    2
   353   209   312    1
   354   138   186    1
   355   138    42    1
   356   140   188    1
   357   140    44    1
   358   182   230    2
   359   182   126    1
   360   141   189    1
   361   141    45    1
   362   211   163    2
   363   211   306    1
   364   143   191    1
   365   143    47    1
   366   231   183    2
   367   231   319    1
   368   230   318    1
   369   228   180    2
   370   228   316    1
   371   225   177    2
   372   225   313    1
   373   157   205    1
   374   157    72    1
   375   155   203    1
   376   155    70    1
   377   216   168    2
   378   216   309    1
   379   154   202    1
   380   154    67    1
   381   214   166    2
   382   214   307    1
   383   189   237   ar
   384   191   239   ar
   385   188   236   ar
   386   183   127    1
   387   186   234   ar
   388    34     2    1
   389   177   121    1
   390   180   124    1
   391   208   257   ar
   392    37     5    1
   393    39     7    1
   394   168   117    1
   395   202   259   ar
   396   203   262   ar
   397   166   115    1
   398   205   264   ar
   399   163   114    1
   400   161   120    1
   401   124    28    1
   402    45     5    1
   403   121    29    1
   404   120    25    1
   405   117    28    1
   406   115    32    1
   407   114    29    1
   408   126    32    1
   409   127    25    1
   410    65     4    1
   411    44     4    1
   412    67     2    1
   413    42     2    1
   414    70     5    1
   415    47     7    1
   416    72     7    1
   417   239   236   ar
   418   239   335    1
   419   257   262   ar
   420   257   353    1
   421   259   264   ar
   422   259   355    1
   423   262   358    1
   424   264   360    1
   425   306   402    1
   426   307   403    1
   427   309   405    1
   428   312   408    1
   429   313   409    1
   430   316   412    1
   431   318   414    1
   432   319   415    1
   433   237   234   ar
   434   237   333    1
   435   236   332    1
   436   234   330    1
   437    25    97    1
   438     2   107    1
   439     5   106    1
   440    28   100    1
   441    29   101    1
   442     4   111    1
   443    32   104    1
   444     7   110    1
   445   106   173    1
   446   101   173    1
   447   104   176    1
   448   100   172    1
   449    97   169    1
   450   107   172    1
   451   110   169    1
   452   111   176    1
   453   173   221    2
   454   169   217    2
   455   176   224    2
   456   172   220    2
   457   217   302    1
   458   217   289    1
   459   224   303    1
   460   224   296    1
   461   221   298    1
   462   221   293    1
   463   220   299    1
   464   220   292    1
   465   385   289    1
   466   399   303    1
   467   398   302    1
   468   395   299    1
   469   394   298    1
   470   392   296    1
   471   388   292    1
   472   389   293    1
